/*--------------------------------*- C++ -*----------------------------------*\
| =========                 |                                                 |
| \\      /  F ield         | OpenFOAM: The Open Source CFD Toolbox           |
|  \\    /   O peration     | Version:  4.1                                   |
|   \\  /    A nd           | Web:      www.OpenFOAM.org                      |
|    \\/     M anipulation  |                                                 |
\*---------------------------------------------------------------------------*/
FoamFile
{
    version     2.0;
    format      ascii;
    class       volVectorField;
    location    "0/Air_rotated";
    object      U;
}
// * * * * * * * * * * * * * * * * * * * * * * * * * * * * * * * * * * * * * //

dimensions      [0 1 -1 0 0 0 0];

internalField   uniform (0.01 0 0);

boundaryField
{
    Air
    {
        type            zeroGradient;
    }
    Air_top
    {
        type            zeroGradient;
    }
    AirBottomLine_rotated
    {
        type            inletOutlet;
        value           uniform (0.01 0 0);
        inletValue      uniform (0 0 0);
    }
    Air_rotated_to_Calorimeter_rotated
    {
        type            noSlip;
    }
    Air_rotated_to_Barrel_rotated
    {
        type            noSlip;
    }
}


// ************************************************************************* //
