/*--------------------------------*- C++ -*----------------------------------*\
| =========                 |                                                 |
| \\      /  F ield         | OpenFOAM: The Open Source CFD Toolbox           |
|  \\    /   O peration     | Version:  4.1                                   |
|   \\  /    A nd           | Web:      www.OpenFOAM.org                      |
|    \\/     M anipulation  |                                                 |
\*---------------------------------------------------------------------------*/
FoamFile
{
    version     2.0;
    format      ascii;
    class       volScalarField;
    location    "0/Warhead_rotated";
    object      cellToRegion;
}
// * * * * * * * * * * * * * * * * * * * * * * * * * * * * * * * * * * * * * //

dimensions      [0 0 0 0 0 0 0];

internalField   uniform 1;

boundaryField
{
    Warhead
    {
        type            zeroGradient;
    }
    Warhead_top
    {
        type            zeroGradient;
    }
    ExtLine_rotated
    {
        type            zeroGradient;
    }
    Warhead_rotated_to_Calorimeter_rotated
    {
        type            calculated;
        value           uniform 0;
    }
    Warhead_rotated_to_Barrel_rotated
    {
        type            calculated;
        value           uniform 0;
    }
}


// ************************************************************************* //
