/*--------------------------------*- C++ -*----------------------------------*\
| =========                 |                                                 |
| \\      /  F ield         | OpenFOAM: The Open Source CFD Toolbox           |
|  \\    /   O peration     | Version:  4.1                                   |
|   \\  /    A nd           | Web:      www.OpenFOAM.org                      |
|    \\/     M anipulation  |                                                 |
\*---------------------------------------------------------------------------*/
FoamFile
{
    version     2.0;
    format      ascii;
    class       polyBoundaryMesh;
    location    "constant/Warhead_rotated/polyMesh";
    object      boundary;
}
// * * * * * * * * * * * * * * * * * * * * * * * * * * * * * * * * * * * * * //

5
(
    Warhead
    {
        type            patch;
        nFaces          280;
        startFace       526;
    }
    Warhead_top
    {
        type            patch;
        nFaces          280;
        startFace       806;
    }
    ExtLine_rotated
    {
        type            patch;
        nFaces          32;
        startFace       1086;
    }
    Warhead_rotated_to_Calorimeter_rotated
    {
        type            mappedWall;
        inGroups        1(wall);
        nFaces          20;
        startFace       1118;
        sampleMode      nearestPatchFace;
        sampleRegion    Calorimeter_rotated;
        samplePatch     Calorimeter_rotated_to_Warhead_rotated;
    }
    Warhead_rotated_to_Barrel_rotated
    {
        type            mappedWall;
        inGroups        1(wall);
        nFaces          16;
        startFace       1138;
        sampleMode      nearestPatchFace;
        sampleRegion    Barrel_rotated;
        samplePatch     Barrel_rotated_to_Warhead_rotated;
    }
)

// ************************************************************************* //
