/*--------------------------------*- C++ -*----------------------------------*\
| =========                 |                                                 |
| \\      /  F ield         | OpenFOAM: The Open Source CFD Toolbox           |
|  \\    /   O peration     | Version:  4.1                                   |
|   \\  /    A nd           | Web:      www.OpenFOAM.org                      |
|    \\/     M anipulation  |                                                 |
\*---------------------------------------------------------------------------*/
FoamFile
{
    version     2.0;
    format      ascii;
    class       dictionary;
    object      thermophysicalProperties;
}
// * * * * * * * * * * * * * * * * * * * * * * * * * * * * * * * * * * * * * //

thermoType
{
    type            heSolidThermo;
    mixture         pureMixture;
    transport       constIso;
    thermo          hConst;
    equationOfState rhoConst;
    specie          specie;
    energy          sensibleEnthalpy;
}

mixture //Iridium
{
    specie
    {
        nMoles      1;
        molWeight   192; // [g/mol]
    }

    transport
    {
        kappa   147; // [W/m.K]
    }

    thermodynamics
    {
        Hf      219.4e3; // [J/kg] 
        Cp      130.37; // [J/kg.K]
    }

    equationOfState
    {
        rho     22560; // [kg/m3]
    }
}

// ************************************************************************* //
