/*--------------------------------*- C++ -*----------------------------------*\
| =========                 |                                                 |
| \\      /  F ield         | OpenFOAM: The Open Source CFD Toolbox           |
|  \\    /   O peration     | Version:  4.1                                   |
|   \\  /    A nd           | Web:      www.OpenFOAM.org                      |
|    \\/     M anipulation  |                                                 |
\*---------------------------------------------------------------------------*/
FoamFile
{
    version     2.0;
    format      ascii;
    class       polyBoundaryMesh;
    location    "constant/Calorimeter_rotated/polyMesh";
    object      boundary;
}
// * * * * * * * * * * * * * * * * * * * * * * * * * * * * * * * * * * * * * //

5
(
    Calorimeter
    {
        type            patch;
        nFaces          494;
        startFace       944;
    }
    Calorimeter_top
    {
        type            patch;
        nFaces          494;
        startFace       1438;
    }
    CalorimeterLine_rotated
    {
        type            patch;
        nFaces          24;
        startFace       1932;
    }
    Calorimeter_rotated_to_Air_rotated
    {
        type            mappedWall;
        inGroups        1(wall);
        nFaces          20;
        startFace       1956;
        sampleMode      nearestPatchFace;
        sampleRegion    Air_rotated;
        samplePatch     Air_rotated_to_Calorimeter_rotated;
    }
    Calorimeter_rotated_to_Warhead_rotated
    {
        type            mappedWall;
        inGroups        1(wall);
        nFaces          20;
        startFace       1976;
        sampleMode      nearestPatchFace;
        sampleRegion    Warhead_rotated;
        samplePatch     Warhead_rotated_to_Calorimeter_rotated;
    }
)

// ************************************************************************* //
