/*--------------------------------*- C++ -*----------------------------------*\
| =========                 |                                                 |
| \\      /  F ield         | OpenFOAM: The Open Source CFD Toolbox           |
|  \\    /   O peration     | Version:  4.1                                   |
|   \\  /    A nd           | Web:      www.OpenFOAM.org                      |
|    \\/     M anipulation  |                                                 |
\*---------------------------------------------------------------------------*/
FoamFile
{
    version     2.0;
    format      ascii;
    class       volScalarField;
    location    "0/Air_rotated";
    object      T;
}
// * * * * * * * * * * * * * * * * * * * * * * * * * * * * * * * * * * * * * //

dimensions      [0 0 0 1 0 0 0];

internalField   uniform 300;

boundaryField
{
    Air
    {
        type            zeroGradient;
    }
    Air_top
    {
        type            zeroGradient;
    }
    AirBottomLine_rotated
    {
    	type 		zeroGradient;
    }
    Air_rotated_to_Calorimeter_rotated
    {
        type            compressible::turbulentTemperatureCoupledBaffleMixed;
	Tnbr            T;
	kappaMethod	fluidThermo;
	value           uniform 300;
    }
    Air_rotated_to_Barrel_rotated
    {
        type            compressible::turbulentTemperatureCoupledBaffleMixed;
	Tnbr            T;
	kappaMethod	fluidThermo;
	value           uniform 300;
    }
}


// ************************************************************************* //
