/*--------------------------------*- C++ -*----------------------------------*\
| =========                 |                                                 |
| \\      /  F ield         | OpenFOAM: The Open Source CFD Toolbox           |
|  \\    /   O peration     | Version:  4.1                                   |
|   \\  /    A nd           | Web:      www.OpenFOAM.org                      |
|    \\/     M anipulation  |                                                 |
\*---------------------------------------------------------------------------*/
FoamFile
{
    version     2.0;
    format      ascii;
    class       polyBoundaryMesh;
    location    "constant/Barrel_rotated/polyMesh";
    object      boundary;
}
// * * * * * * * * * * * * * * * * * * * * * * * * * * * * * * * * * * * * * //

6
(
    Barrel
    {
        type            patch;
        nFaces          960;
        startFace       1844;
    }
    Barrel_top
    {
        type            patch;
        nFaces          960;
        startFace       2804;
    }
    ExtLine_rotated
    {
        type            patch;
        nFaces          60;
        startFace       3764;
    }
    BarrelBottomLine_rotated
    {
        type            patch;
        nFaces          16;
        startFace       3824;
    }
    Barrel_rotated_to_Air_rotated
    {
        type            mappedWall;
        inGroups        1(wall);
        nFaces          60;
        startFace       3840;
        sampleMode      nearestPatchFace;
        sampleRegion    Air_rotated;
        samplePatch     Air_rotated_to_Barrel_rotated;
    }
    Barrel_rotated_to_Warhead_rotated
    {
        type            mappedWall;
        inGroups        1(wall);
        nFaces          16;
        startFace       3900;
        sampleMode      nearestPatchFace;
        sampleRegion    Warhead_rotated;
        samplePatch     Warhead_rotated_to_Barrel_rotated;
    }
)

// ************************************************************************* //
